Circuit: * C:\Users\Vidhi Shah\Desktop\VITC Sem 2\ECE Lab\EXP 6\Exp6_1.asc

Direct Newton iteration for .op point succeeded.

Date: Sun Apr 24 23:13:52 2022
Total elapsed time: 0.083 seconds.

tnom = 27
temp = 27
method = modified trap
totiter = 613
traniter = 608
tranpoints = 261
accept = 168
rejected = 93
matrix size = 11
fillins = 0
solver = Normal
Matrix Compiler1: 610 bytes object code size  0.7/0.4/[0.4]
Matrix Compiler2: off  [0.4]/0.6/0.5

