Circuit: * C:\Users\Vidhi Shah\Desktop\VITC Sem 2\ECE Lab\EXP 6\Exp6_2.asc

Direct Newton iteration for .op point succeeded.

Date: Sun Apr 24 23:21:58 2022
Total elapsed time: 0.078 seconds.

tnom = 27
temp = 27
method = trap
totiter = 5
traniter = 0
tranpoints = 0
accept = 0
rejected = 0
matrix size = 11
fillins = 0
solver = Normal
Matrix Compiler1:      33 opcodes
Matrix Compiler2: 847 bytes object code size
