Circuit: * C:\Users\Vidhi Shah\Desktop\VITC Sem 2\ECE Lab\EXP 8\Exp8.asc

Direct Newton iteration for .op point succeeded.

Date: Wed May 25 11:32:32 2022
Total elapsed time: 0.161 seconds.

tnom = 27
temp = 27
method = modified trap
totiter = 6683
traniter = 6678
tranpoints = 2271
accept = 1656
rejected = 615
matrix size = 12
fillins = 6
solver = Normal
Matrix Compiler1: 998 bytes object code size  0.4/0.3/[0.2]
Matrix Compiler2: 1.04 KB object code size  0.2/0.3/[0.2]

