Circuit: * C:\Users\Vidhi Shah\Desktop\VITC Sem 2\ECE Lab\EXP 7\Exp7_Part1.asc

Error on line 5 : vgs n001 0 v
	 Unknown parameter "v"
Vgs: Missing value, assumed 0V @ DC

Date: Fri Apr 22 22:09:38 2022
Total elapsed time: 0.208 seconds.

tnom = 27
temp = 27
method = trap
totiter = 25
traniter = 0
tranpoints = 0
accept = 0
rejected = 0
matrix size = 6
fillins = 0
solver = Normal
Matrix Compiler1: 146 bytes object code size
Matrix Compiler2: 380 bytes object code size
