Circuit: * C:\Users\Vidhi Shah\Desktop\VITC Sem 2\ECE Lab\EXP 7\Exp7_Part2.asc

Error on line 5 : vgs n001 0 v
	 Unknown parameter "v"
Error on line 6 : vds n004 0 v
	 Unknown parameter "v"
Vds: Missing value, assumed 0V @ DC
Vgs: Missing value, assumed 0V @ DC
.OP point found by inspection.
.step vgs=0
.step vgs=2
.step vgs=4
.step vgs=6
.step vgs=8
.step vgs=10

Date: Fri Apr 22 22:11:46 2022
Total elapsed time: 0.262 seconds.

tnom = 27
temp = 27
method = trap
totiter = 1829
traniter = 0
tranpoints = 0
accept = 0
rejected = 0
matrix size = 6
fillins = 0
solver = Normal
Matrix Compiler1: 146 bytes object code size  0.1/0.1/[0.1]
Matrix Compiler2: 380 bytes object code size  0.2/0.2/[0.1]

