Circuit: * C:\Users\Vidhi Shah\Desktop\VITC Sem 2\ECE Lab\EXP 3\Exp3_Part1.asc

.OP point found by inspection.

Date: Tue Jun 07 06:22:55 2022
Total elapsed time: 0.190 seconds.

tnom = 27
temp = 27
method = modified trap
totiter = 847
traniter = 847
tranpoints = 330
accept = 219
rejected = 111
matrix size = 6
fillins = 0
solver = Normal
Matrix Compiler1: 254 bytes object code size  0.4/0.2/[0.2]
Matrix Compiler2: off  [0.2]/0.4/0.3

