Circuit: * C:\Users\Vidhi Shah\Desktop\VITC Sem 1\Assignments\EEE Lab\FAT\1.asc

Direct Newton iteration for .op point succeeded.

Date: Tue Jan 11 17:50:03 2022
Total elapsed time: 0.050 seconds.

tnom = 27
temp = 27
method = trap
totiter = 3
traniter = 0
tranpoints = 0
accept = 0
rejected = 0
matrix size = 7
fillins = 1
solver = Normal
Matrix Compiler1: 214 bytes object code size
Matrix Compiler2: 447 bytes object code size
