Circuit: * C:\Users\Vidhi Shah\Desktop\VITC Sem 1\Assignments\EEE Lab\FAT\Draft1.asc

Direct Newton iteration for .op point succeeded.

Date: Wed Mar 02 23:53:29 2022
Total elapsed time: 0.031 seconds.

tnom = 27
temp = 27
method = trap
totiter = 3
traniter = 0
tranpoints = 0
accept = 0
rejected = 0
matrix size = 4
fillins = 0
solver = Normal
Matrix Compiler1: 100 bytes object code size
Matrix Compiler2: 248 bytes object code size
