Circuit: * C:\Users\Vidhi Shah\Desktop\VITC Sem 1\Assignments\EEE Lab\EXP 8 LT Spice\PowerFactor_Correction.asc

.OP point found by inspection.

Date: Sun Jan 09 01:15:35 2022
Total elapsed time: 2.490 seconds.

tnom = 27
temp = 27
method = modified trap
totiter = 860022
traniter = 860022
tranpoints = 430012
accept = 270029
rejected = 159983
matrix size = 5
fillins = 0
solver = Normal
Matrix Compiler1: 150 bytes object code size  0.1/0.1/[0.1]
Matrix Compiler2: 321 bytes object code size  0.1/0.1/[0.1]

