Circuit: * C:\Users\Vidhi Shah\Desktop\VITC Sem 1\Assignments\EEE Lab\EXP 5 LT Spice\Transient_RC.asc

Direct Newton iteration for .op point succeeded.

Date: Mon Dec 27 18:00:07 2021
Total elapsed time: 0.062 seconds.

tnom = 27
temp = 27
method = modified trap
totiter = 2215
traniter = 2212
tranpoints = 1106
accept = 1104
rejected = 2
matrix size = 6
fillins = 0
solver = Normal
Matrix Compiler1: 128 bytes object code size  0.2/0.2/[0.1]
Matrix Compiler2: 326 bytes object code size  1.8/0.3/[0.2]

