Circuit: * C:\Users\Vidhi Shah\Desktop\VITC Sem 1\Assignments\EEE Lab\EXP 5 LT Spice\Transient_RLC.asc

Direct Newton iteration for .op point succeeded.

Date: Sat Jan 08 18:02:42 2022
Total elapsed time: 0.124 seconds.

tnom = 27
temp = 27
method = modified trap
totiter = 2318
traniter = 2315
tranpoints = 1158
accept = 1155
rejected = 3
matrix size = 7
fillins = 0
solver = Normal
Matrix Compiler1: 178 bytes object code size  0.3/0.3/[0.3]
Matrix Compiler2: 399 bytes object code size  0.3/0.5/[0.3]

