Circuit: * C:\Users\Vidhi Shah\Desktop\VITC Sem 1\Assignments\EEE Lab\EXP 5 LT Spice\Transient_LC.asc

Direct Newton iteration for .op point succeeded.

Date: Sat Jan 08 17:38:02 2022
Total elapsed time: 0.100 seconds.

tnom = 27
temp = 27
method = modified trap
totiter = 2452
traniter = 2449
tranpoints = 1224
accept = 1207
rejected = 17
matrix size = 6
fillins = 0
solver = Normal
Matrix Compiler1: 128 bytes object code size  0.2/0.2/[0.2]
Matrix Compiler2: 326 bytes object code size  0.3/0.4/[0.3]

