Circuit: * C:\Users\Vidhi Shah\Desktop\VITC Sem 2\ECE Lab\EXP 4\Exp4.asc

Error on line 3 : vbe n002 0 v
	 Unknown parameter "v"
Error on line 4 : vce n004 0 v
	 Unknown parameter "v"
Vce: Missing value, assumed 0V @ DC
Vbe: Missing value, assumed 0V @ DC
.OP point found by inspection.
.step vce=0
.step vce=1
.step vce=2
.step vce=3
.step vce=4
.step vce=5
.step vce=6
.step vce=7
.step vce=8
.step vce=9
.step vce=10

Date: Tue Apr 05 00:06:30 2022
Total elapsed time: 0.254 seconds.

tnom = 27
temp = 27
method = trap
totiter = 385
traniter = 0
tranpoints = 0
accept = 0
rejected = 0
matrix size = 9
fillins = 0
solver = Normal
Matrix Compiler1:      26 opcodes  0.7/[0.2]/0.4
Matrix Compiler2: 667 bytes object code size  0.5/0.4/[0.2]

