Circuit: * C:\Users\Vidhi Shah\Desktop\VITC Sem 2\ECE Lab\EXP 2\Exp2.asc

.OP point found by inspection.

Date: Tue Jun 07 00:29:28 2022
Total elapsed time: 0.156 seconds.

tnom = 27
temp = 27
method = modified trap
totiter = 523
traniter = 523
tranpoints = 185
accept = 130
rejected = 55
matrix size = 4
fillins = 0
solver = Normal
Matrix Compiler1:       7 opcodes  0.3/[0.2]/0.2
Matrix Compiler2: off  [0.3]/0.4/0.4

