Circuit: * C:\Users\Vidhi Shah\Desktop\VITC Sem 2\ECE Lab\EXP 9\AND_NAND.asc

WARNING: Less than two connections to node N002.  This node is used by A§NAND.
Direct Newton iteration for .op point succeeded.

Date: Wed Jun 01 09:40:11 2022
Total elapsed time: 0.117 seconds.

tnom = 27
temp = 27
method = modified trap
totiter = 2086
traniter = 2082
tranpoints = 1042
accept = 1042
rejected = 0
matrix size = 5
fillins = 0
solver = Normal
Matrix Compiler1: 96 bytes object code size  0.3/0.2/[0.1]
Matrix Compiler2: 227 bytes object code size  0.1/0.2/[0.1]

