Circuit: * C:\Users\Vidhi Shah\Desktop\VITC Sem 2\ECE Lab\EXP 9\Expression1.asc

WARNING: Less than two connections to node N003.  This node is used by A§NOT.
Direct Newton iteration for .op point succeeded.

Date: Wed Jun 01 10:15:55 2022
Total elapsed time: 0.067 seconds.

tnom = 27
temp = 27
method = modified trap
totiter = 2085
traniter = 2082
tranpoints = 1042
accept = 1042
rejected = 0
matrix size = 11
fillins = 0
solver = Normal
Matrix Compiler1: 216 bytes object code size  0.1/0.1/[0.1]
Matrix Compiler2: 489 bytes object code size  0.1/0.1/[0.1]

