Circuit: * C:\Users\Vidhi Shah\Desktop\VITC Sem 2\ECE Lab\EXP 9\Expression3.asc

WARNING: Less than two connections to node N007.  This node is used by A§OR1.
Direct Newton iteration for .op point succeeded.

Date: Fri Jun 03 02:48:58 2022
Total elapsed time: 0.195 seconds.

tnom = 27
temp = 27
method = modified trap
totiter = 2088
traniter = 2082
tranpoints = 1042
accept = 1042
rejected = 0
matrix size = 19
fillins = 0
solver = Normal
Matrix Compiler1: 346 bytes object code size  0.8/0.6/[0.4]
Matrix Compiler2: 815 bytes object code size  0.8/1.7/[0.3]

