Circuit: * C:\Users\Vidhi Shah\Desktop\VITC Sem 2\ECE Lab\EXP 9\Expression2.asc

WARNING: Less than two connections to node N006.  This node is used by A§OR.
Direct Newton iteration for .op point succeeded.

Date: Thu Jun 02 20:00:50 2022
Total elapsed time: 0.080 seconds.

tnom = 27
temp = 27
method = modified trap
totiter = 2087
traniter = 2082
tranpoints = 1042
accept = 1042
rejected = 0
matrix size = 12
fillins = 0
solver = Normal
Matrix Compiler1: 212 bytes object code size  0.1/0.1/[0.1]
Matrix Compiler2: off  [0.1]/0.2/0.1

